Version 4
SHEET 1 880 680
WIRE -208 224 -256 224
WIRE -16 224 -128 224
WIRE 96 224 -16 224
WIRE 96 304 96 224
WIRE -256 336 -256 224
WIRE -256 432 -256 416
WIRE -16 464 -16 448
FLAG -256 432 0
FLAG 96 384 0
FLAG -16 464 0
SYMBOL res 80 288 R0
SYMATTR InstName R3
SYMATTR Value 1e6
SYMBOL voltage -256 320 R0
WINDOW 0 24 96 Left 2
WINDOW 3 -20 173 Left 2
WINDOW 123 0 0 Left 0
WINDOW 39 24 -12 Left 2
SYMATTR InstName V1
SYMATTR Value SINE(2 2 1e3 5n 0 270 1)
SYMBOL res -112 208 R90
WINDOW 0 0 56 VBottom 2
WINDOW 3 32 56 VTop 2
SYMATTR InstName R2
SYMATTR Value 1k
SYMBOL wtron -16 336 R0
SYMATTR Value ""
SYMATTR SpiceLine ""
SYMATTR Value2 ""
SYMATTR InstName U1
TEXT -88 176 Left 2 !.tran 0 2m 0 10u uic
TEXT -88 200 Left 2 !.options reltol=1e-6
